
     RDKit          3D

 38 41  0  0  0  0  0  0  0  0999 V2000
    2.1358    1.0657   -0.1568 C   0  0  0  0  0  0  0  0  0  0  0  0
    1.4581   -0.2870   -0.3682 C   0  0  0  0  0  0  0  0  0  0  0  0
    2.1332   -1.3680    0.4876 C   0  0  0  0  0  0  0  0  0  0  0  0
    1.4957   -2.2850    1.0104 O   0  0  0  0  0  0  0  0  0  0  0  0
    3.4995   -1.3212    0.5681 N   0  0  0  0  0  0  0  0  0  0  0  0
    4.2655   -0.2390    0.1235 C   0  0  0  0  0  0  0  0  0  0  0  0
    5.6563   -0.3383    0.1164 C   0  0  0  0  0  0  0  0  0  0  0  0
    6.4237    0.7440   -0.3156 C   0  0  0  0  0  0  0  0  0  0  0  0
    5.8017    1.9239   -0.7240 C   0  0  0  0  0  0  0  0  0  0  0  0
    4.4103    2.0284   -0.6975 C   0  0  0  0  0  0  0  0  0  0  0  0
    3.6322    0.9433   -0.2785 C   0  0  0  0  0  0  0  0  0  0  0  0
    0.0365   -0.2812   -0.0249 N   0  0  0  0  0  0  0  0  0  0  0  0
   -0.8831    0.3637   -0.8197 C   0  0  0  0  0  0  0  0  0  0  0  0
   -0.5420    1.0597   -1.7705 O   0  0  0  0  0  0  0  0  0  0  0  0
   -2.2654    0.1383   -0.4573 C   0  0  0  0  0  0  0  0  0  0  0  0
   -3.3933    0.4306   -1.2075 C   0  0  0  0  0  0  0  0  0  0  0  0
   -4.5446    0.0529   -0.4672 C   0  0  0  0  0  0  0  0  0  0  0  0
   -5.9296    0.0996   -0.7146 C   0  0  0  0  0  0  0  0  0  0  0  0
   -6.8151   -0.3657    0.2645 C   0  0  0  0  0  0  0  0  0  0  0  0
   -6.3378   -0.8688    1.4731 C   0  0  0  0  0  0  0  0  0  0  0  0
   -4.9663   -0.9227    1.7407 C   0  0  0  0  0  0  0  0  0  0  0  0
   -4.0960   -0.4555    0.7490 C   0  0  0  0  0  0  0  0  0  0  0  0
   -2.7224   -0.3813    0.7345 N   0  0  0  0  0  0  0  0  0  0  0  0
    1.9036    1.4589    0.8415 H   0  0  0  0  0  0  0  0  0  0  0  0
    1.7604    1.7920   -0.8864 H   0  0  0  0  0  0  0  0  0  0  0  0
    1.5509   -0.6025   -1.4159 H   0  0  0  0  0  0  0  0  0  0  0  0
    3.9501   -2.1093    1.0156 H   0  0  0  0  0  0  0  0  0  0  0  0
    6.1545   -1.2497    0.4340 H   0  0  0  0  0  0  0  0  0  0  0  0
    7.5083    0.6698   -0.3313 H   0  0  0  0  0  0  0  0  0  0  0  0
    6.4022    2.7681   -1.0546 H   0  0  0  0  0  0  0  0  0  0  0  0
    3.9385    2.9615   -0.9983 H   0  0  0  0  0  0  0  0  0  0  0  0
   -0.2714   -1.0999    0.4874 H   0  0  0  0  0  0  0  0  0  0  0  0
   -3.3793    0.8698   -2.1977 H   0  0  0  0  0  0  0  0  0  0  0  0
   -6.3084    0.4922   -1.6535 H   0  0  0  0  0  0  0  0  0  0  0  0
   -7.8857   -0.3322    0.0779 H   0  0  0  0  0  0  0  0  0  0  0  0
   -7.0426   -1.2246    2.2213 H   0  0  0  0  0  0  0  0  0  0  0  0
   -4.5990   -1.3137    2.6837 H   0  0  0  0  0  0  0  0  0  0  0  0
   -2.1352   -0.6492    1.5109 H   0  0  0  0  0  0  0  0  0  0  0  0
  1  2  1  0
  2  3  1  0
  3  4  2  0
  3  5  1  0
  5  6  1  0
  6  7  2  0
  7  8  1  0
  8  9  2  0
  9 10  1  0
 10 11  2  0
  2 12  1  0
 12 13  1  0
 13 14  2  0
 13 15  1  0
 15 16  2  0
 16 17  1  0
 17 18  2  0
 18 19  1  0
 19 20  2  0
 20 21  1  0
 21 22  2  0
 22 23  1  0
 11  1  1  0
 11  6  1  0
 23 15  1  0
 22 17  1  0
  1 24  1  0
  1 25  1  0
  2 26  1  0
  5 27  1  0
  7 28  1  0
  8 29  1  0
  9 30  1  0
 10 31  1  0
 12 32  1  0
 16 33  1  0
 18 34  1  0
 19 35  1  0
 20 36  1  0
 21 37  1  0
 23 38  1  0
M  END
