
     RDKit          3D

 44 47  0  0  0  0  0  0  0  0999 V2000
   -1.6416   -0.4139    1.8004 C   0  0  0  0  0  0  0  0  0  0  0  0
   -1.8648    0.7157    0.7876 C   0  0  1  0  0  0  0  0  0  0  0  0
   -0.6153    1.0087   -0.0353 C   0  0  0  0  0  0  0  0  0  0  0  0
   -0.2606   -0.0795   -0.9416 N   0  0  0  0  0  0  0  0  0  0  0  0
   -1.3742   -0.7187   -1.6003 C   0  0  0  0  0  0  0  0  0  0  0  0
   -1.1385   -1.6714   -2.6109 C   0  0  0  0  0  0  0  0  0  0  0  0
   -2.1867   -2.3064   -3.2749 C   0  0  0  0  0  0  0  0  0  0  0  0
   -3.4942   -2.0194   -2.9229 C   0  0  0  0  0  0  0  0  0  0  0  0
   -3.7543   -1.1095   -1.8964 C   0  0  0  0  0  0  0  0  0  0  0  0
   -2.7182   -0.4476   -1.2112 C   0  0  0  0  0  0  0  0  0  0  0  0
   -3.0093    0.4317   -0.0961 N   0  0  0  0  0  0  0  0  0  0  0  0
   -4.2806    0.9789    0.1309 C   0  0  0  0  0  0  0  0  0  0  0  0
   -5.2170    0.9607   -0.6696 O   0  0  0  0  0  0  0  0  0  0  0  0
   -4.5002    1.6872    1.4495 C   0  0  0  0  0  0  0  0  0  0  0  0
    1.0254   -0.0555   -1.5066 C   0  0  0  0  0  0  0  0  0  0  0  0
    1.2412   -0.0815   -2.7167 O   0  0  0  0  0  0  0  0  0  0  0  0
    2.1427    0.0160   -0.5802 C   0  0  0  0  0  0  0  0  0  0  0  0
    2.2698   -0.3489    0.7499 C   0  0  0  0  0  0  0  0  0  0  0  0
    3.6019   -0.0769    1.1664 C   0  0  0  0  0  0  0  0  0  0  0  0
    4.2971   -0.2190    2.3824 C   0  0  0  0  0  0  0  0  0  0  0  0
    5.6456    0.1511    2.4462 C   0  0  0  0  0  0  0  0  0  0  0  0
    6.2998    0.6503    1.3216 C   0  0  0  0  0  0  0  0  0  0  0  0
    5.6307    0.7935    0.1023 C   0  0  0  0  0  0  0  0  0  0  0  0
    4.2823    0.4218    0.0581 C   0  0  0  0  0  0  0  0  0  0  0  0
    3.3904    0.4374   -0.9870 N   0  0  0  0  0  0  0  0  0  0  0  0
   -0.8259   -0.1604    2.4856 H   0  0  0  0  0  0  0  0  0  0  0  0
   -2.5408   -0.5893    2.3993 H   0  0  0  0  0  0  0  0  0  0  0  0
   -1.3900   -1.3618    1.3135 H   0  0  0  0  0  0  0  0  0  0  0  0
   -2.0672    1.6268    1.3588 H   0  0  0  0  0  0  0  0  0  0  0  0
    0.2145    1.2676    0.6273 H   0  0  0  0  0  0  0  0  0  0  0  0
   -0.7800    1.8959   -0.6634 H   0  0  0  0  0  0  0  0  0  0  0  0
   -0.1301   -1.9475   -2.9073 H   0  0  0  0  0  0  0  0  0  0  0  0
   -1.9755   -3.0260   -4.0616 H   0  0  0  0  0  0  0  0  0  0  0  0
   -4.3194   -2.5135   -3.4296 H   0  0  0  0  0  0  0  0  0  0  0  0
   -4.7976   -0.9708   -1.6309 H   0  0  0  0  0  0  0  0  0  0  0  0
   -5.5750    1.8288    1.6039 H   0  0  0  0  0  0  0  0  0  0  0  0
   -4.0252    2.6713    1.4293 H   0  0  0  0  0  0  0  0  0  0  0  0
   -4.1313    1.0935    2.2878 H   0  0  0  0  0  0  0  0  0  0  0  0
    1.4889   -0.7760    1.3647 H   0  0  0  0  0  0  0  0  0  0  0  0
    3.7971   -0.6118    3.2626 H   0  0  0  0  0  0  0  0  0  0  0  0
    6.1877    0.0441    3.3826 H   0  0  0  0  0  0  0  0  0  0  0  0
    7.3490    0.9291    1.3908 H   0  0  0  0  0  0  0  0  0  0  0  0
    6.1448    1.1757   -0.7736 H   0  0  0  0  0  0  0  0  0  0  0  0
    3.6045    0.7195   -1.9349 H   0  0  0  0  0  0  0  0  0  0  0  0
  1  2  1  0
  2  3  1  0
  3  4  1  0
  4  5  1  0
  5  6  2  0
  6  7  1  0
  7  8  2  0
  8  9  1  0
  9 10  2  0
 10 11  1  0
 11 12  1  0
 12 13  2  0
 12 14  1  0
  4 15  1  0
 15 16  2  0
 15 17  1  0
 17 18  2  0
 18 19  1  0
 19 20  2  0
 20 21  1  0
 21 22  2  0
 22 23  1  0
 23 24  2  0
 24 25  1  0
 11  2  1  0
 10  5  1  0
 25 17  1  0
 24 19  1  0
  1 26  1  0
  1 27  1  0
  1 28  1  0
  2 29  1  1
  3 30  1  0
  3 31  1  0
  6 32  1  0
  7 33  1  0
  8 34  1  0
  9 35  1  0
 14 36  1  0
 14 37  1  0
 14 38  1  0
 18 39  1  0
 20 40  1  0
 21 41  1  0
 22 42  1  0
 23 43  1  0
 25 44  1  0
M  END
